@<TRIPOS>MOLECULE
Doxepin
43 45 1 0 0 
SMALL
USER_CHARGES


@<TRIPOS>ATOM
  1 C01     14.5690    31.7550    20.3780 C.3   1 Q5EH   0.0000 
  2 H011    13.6749    31.1532    20.2150 H     1 Q5EH   0.0000 
  3 H012    14.6115    32.0673    21.4214 H     1 Q5EH   0.0000 
  4 H013    15.4532    31.1640    20.1394 H     1 Q5EH   0.0000 
  5 N02     14.5250    32.9430    19.5120 N.4   1 Q5EH   1.0000 
  6 H02     13.7115    33.4971    19.7385 H     1 Q5EH   0.0000 
  7 C03     14.4520    32.5110    18.1060 C.3   1 Q5EH   0.0000 
  8 H031    15.3306    31.9133    17.8635 H     1 Q5EH   0.0000 
  9 H032    14.4183    33.3869    17.4581 H     1 Q5EH   0.0000 
 10 H033    13.5531    31.9131    17.9558 H     1 Q5EH   0.0000 
 11 C04     15.7300    33.7650    19.7240 C.3   1 Q5EH   0.0000 
 12 H041    16.3876    33.2581    20.4302 H     1 Q5EH   0.0000 
 13 H042    16.2470    33.8918    18.7728 H     1 Q5EH   0.0000 
 14 C05     15.3640    35.1380    20.2800 C.3   1 Q5EH   0.0000 
 15 H051    15.8856    35.9108    19.7154 H     1 Q5EH   0.0000 
 16 H052    14.2880    35.2903    20.1959 H     1 Q5EH   0.0000 
 17 C06     15.7730    35.2110    21.7340 C.2   1 Q5EH   0.0000 
 18 H06     15.2517    34.5842    22.4423 H     1 Q5EH   0.0000 
 19 C07     16.7510    36.0140    22.1950 C.2   1 Q5EH   0.0000 
 20 C08     17.5260    36.9430    21.3110 C.ar  1 Q5EH   0.0000 
 21 C09     18.4200    36.4730    20.3470 C.ar  1 Q5EH   0.0000 
 22 H09     18.5469    35.4112    20.1955 H     1 Q5EH   0.0000 
 23 C10     19.1490    37.3840    19.5800 C.ar  1 Q5EH   0.0000 
 24 H10     19.8306    37.0276    18.8218 H     1 Q5EH   0.0000 
 25 C11     18.9970    38.7570    19.7930 C.ar  1 Q5EH   0.0000 
 26 H11     19.5591    39.4612    19.1976 H     1 Q5EH   0.0000 
 27 C12     18.1190    39.2180    20.7750 C.ar  1 Q5EH   0.0000 
 28 H12     18.0029    40.2783    20.9443 H     1 Q5EH   0.0000 
 29 C13     17.3920    38.3030    21.5370 C.ar  1 Q5EH   0.0000 
 30 C14     16.4260    38.7620    22.6050 C.3   1 Q5EH   0.0000 
 31 H141    15.4751    38.2439    22.4808 H     1 Q5EH   0.0000 
 32 H142    16.2687    39.8368    22.5141 H     1 Q5EH   0.0000 
 33 O15     16.9620    38.4680    23.8940 O.3   1 Q5EH   0.0000 
 34 C16     17.1760    37.2050    24.4050 C.ar  1 Q5EH   0.0000 
 35 C17     17.5170    37.1340    25.7580 C.ar  1 Q5EH   0.0000 
 36 H17     17.5858    38.0431    26.3370 H     1 Q5EH   0.0000 
 37 C18     17.7700    35.9080    26.3730 C.ar  1 Q5EH   0.0000 
 38 H18     18.0299    35.8700    27.4206 H     1 Q5EH   0.0000 
 39 C19     17.6860    34.7330    25.6300 C.ar  1 Q5EH   0.0000 
 40 H19     17.8800    33.7791    26.0978 H     1 Q5EH   0.0000 
 41 C20     17.3500    34.7960    24.2790 C.ar  1 Q5EH   0.0000 
 42 H20     17.2882    33.8846    23.7029 H     1 Q5EH   0.0000 
 43 C21     17.0920    36.0210    23.6590 C.ar  1 Q5EH   0.0000 
@<TRIPOS>BOND
  1   1   2  1   
  2   1   3  1   
  3   1   4  1   
  4   1   5  1   
  5   5   6  1   
  6   5   7  1   
  7   5  11  1   
  8   7   8  1   
  9   7   9  1   
 10   7  10  1   
 11  11  12  1   
 12  11  13  1   
 13  11  14  1   
 14  14  15  1   
 15  14  16  1   
 16  14  17  1   
 17  17  18  1   
 18  17  19  2   
 19  19  20  1   
 20  19  43  1   
 21  20  21  ar  
 22  20  29  ar  
 23  21  22  1   
 24  21  23  ar  
 25  23  24  1   
 26  23  25  ar  
 27  25  26  1   
 28  25  27  ar  
 29  27  28  1   
 30  27  29  ar  
 31  29  30  1   
 32  30  31  1   
 33  30  32  1   
 34  30  33  1   
 35  33  34  1   
 36  34  35  ar  
 37  34  43  ar  
 38  35  36  1   
 39  35  37  ar  
 40  37  38  1   
 41  37  39  ar  
 42  39  40  1   
 43  39  41  ar  
 44  41  42  1   
 45  41  43  ar  
